38

  C       -4.70977       -2.62299       -0.00000
  C       -3.72402       -3.59553        0.00000
  C       -2.49895       -2.93423       -0.00000
  N       -2.73558       -1.60709       -0.00000
  C       -4.06573       -1.38886        0.00000
  C       -3.75893        3.31671       -0.00000
  C       -4.73002        2.32779        0.00000
  C       -4.07392        1.10038        0.00000
  N       -2.75103        1.35532        0.00000
  C       -2.51990        2.68266       -0.00000
  C       -4.71644       -0.14693       -0.00000
  C        2.17971        2.40370       -0.00000
  C        1.19313        3.37541        0.00000
  C       -0.03161        2.71365       -0.00000
  N        0.20630        1.38661        0.00000
  C        1.53671        1.16885        0.00000
  C       -1.28332        3.34571        0.00000
  C        1.22761       -3.53657       -0.00000
  C        2.19955       -2.54851        0.00000
  C        1.54463       -1.32042        0.00000
  N        0.22151       -1.57442        0.00000
  C       -0.01089       -2.90177       -0.00000
  C       -1.24702       -3.56565        0.00000
  C        2.18770       -0.07309       -0.00000
  H       -5.71930       -2.78593       -0.00000
  H       -3.87375       -4.60718        0.00000
  H       -3.92864        4.32415       -0.00000
  H       -5.74041        2.47879        0.00000
  H       -2.05999        0.67687        0.00000
  H       -5.74029       -0.14789       -0.00000
  H        3.18906        2.56788       -0.00000
  H        1.34172        4.38719        0.00000
  H       -1.29872        4.36957        0.00000
  H        1.39605       -4.54417       -0.00000
  H        3.20970       -2.70088        0.00000
  H       -0.46876       -0.89513        0.00000
  H       -1.23129       -4.58954        0.00000
  H        3.21166       -0.07239       -0.00000
